# coordinates from Avogadro creation

! RKS B3LYP RIJCOSX SlowConv TightSCF def2-SVP def2-SV/J
! OPT UCO Normalprint

%basis NewGTO 27 "def2-TZVP" end
       NewGTO 7 "def2-TZVP" end
       NewAuxGTO 27 "def2-TZV/J" end
       NewAuxGTO 7 "def2-TZV/J" end
       end

%scf MaxIter 700
     end

%geom MaxIter 300
      end

*xyz 0 1
Co         0.61442        7.84098        3.80227
N         -1.05903        7.24972        4.23121
N         -1.49109        7.49897        5.46892
N         -0.67832        8.21440        6.15200
N          0.42165        8.54560        5.47610
C          1.98127        8.79670        2.49276
C          1.06882        7.99291        1.74153
C          1.20014        6.64722        2.18856
C          2.19098        6.61505        3.21793
C          2.67254        7.94752        3.40080
C         -1.93252        6.39936        3.49676
C          1.36980        9.26688        6.25204
H          2.12189        9.87180        2.39094
H          0.38391        8.35153        0.97471
H          0.60953        5.80064        1.84175
H          2.50428        5.73791        3.78259
H          3.40228        8.26910        4.14229
H          2.22256        9.49815        5.64854
H          1.67467        8.67106        7.08687
H          0.92575       10.17428        6.60468
H         -1.53300        6.23795        2.51735
H         -2.89529        6.85953        3.41785
H         -2.02598        5.46128        4.00289
*
