# coordinates from Avogadro

! UKS B3LYP RIJCOSX SlowConv TightSCF def2-SVP def2/J
! OPT UCO UNO PAL4 Normalprint

%basis NewGTO 27 "def2-TZVP" end
       NewGTO 7 "def2-TZVP" end
       NewAuxGTO 27 "def2/J" end
       NewAuxGTO 7 "def2/J" end
       end

%scf MaxIter 700
     end

%geom MaxIter 500
      end

*xyz 0 2
Co        -0.14799        0.06112       -0.24994
N         -0.34770       -1.88827       -0.25691
N         -1.98376        0.01368       -0.37227
N         -0.43762        1.97324       -0.16816
N          1.70505        0.07571       -0.60207
N          2.18194        0.09566        0.70833
N          1.41873        0.12762        1.72124
N          0.03933        0.08752        1.59859
C         -2.24727       -3.67878       -0.33263
C         -1.74440       -2.25675       -0.27747
C         -2.59975       -1.23265       -0.32017
C         -4.10656       -1.29219       -0.29808
C         -4.80024        0.03530       -0.04442
C         -4.12569        1.20239        0.04138
C         -2.64945        1.21710       -0.11352
C         -1.83474        2.27666       -0.00711
C         -2.35394        3.66690        0.27602
C          0.59756       -2.80834       -0.80809
C          0.94590       -2.76350       -2.20833
C          1.90516       -3.69067       -2.67785
C          2.47701       -4.63346       -1.83740
C          2.10941       -4.70020       -0.50377
C          1.16403       -3.81016        0.03284
C          0.31327       -1.75680       -3.20559
C          1.06420       -1.63307       -4.55197
C         -1.13573       -2.11586       -3.56762
C          0.77235       -3.94822        1.50373
C          0.22331       -5.35588        1.81611
C          1.96377       -3.63727        2.41139
C          0.47435        2.94663       -0.66938
C          1.24702        3.78319        0.18169
C          2.05938        4.77403       -0.40354
C          2.08620        4.96415       -1.78044
C          1.29819        4.18323       -2.61560
C          0.48388        3.16306       -2.09643
C          1.19543        3.67213        1.69964
C          0.66688        4.97275        2.33243
C          2.57710        3.34130        2.27766
C         -0.43951        2.36969       -3.05973
C         -1.73650        3.14742       -3.31360
C          0.14339        2.03761       -4.45622
C          2.68539       -0.25067       -1.57761
C          2.92429        0.55410       -2.68699
C          3.99930        0.28114       -3.54682
C          4.85458       -0.79523       -3.28490
C          4.64940       -1.58418       -2.15461
C          3.58433       -1.30322       -1.30072
C         -0.78883        0.28275        2.75534
C         -2.14319       -0.08298        2.82321
C         -2.88615        0.12801        3.99118
C         -2.29395        0.71926        5.10714
C         -0.95283        1.08951        5.06274
C         -0.20600        0.86405        3.90569
H         -1.42737       -4.40561       -0.42852
H         -2.88263       -3.81236       -1.23394
H         -2.84736       -3.90899        0.57195
H         -4.66825       -2.24602       -0.21982
H         -5.87701        0.03765        0.09083
H         -4.67022        2.11917        0.24404
H         -1.54070        4.41312        0.25909
H         -2.83301        3.68375        1.27760
H         -3.11244        3.97543       -0.47006
H          2.22852       -3.71715       -3.70633
H          3.20478       -5.33162       -2.23149
H          2.56724       -5.46345        0.11016
H          0.33571       -0.75162       -2.74301
H          2.12752       -1.38284       -4.39591
H          0.61545       -0.83114       -5.17514
H          1.00617       -2.57089       -5.14389
H         -1.17505       -3.11161       -4.05903
H         -1.55507       -1.35886       -4.26603
H         -1.80724       -2.13600       -2.71016
H         -0.02468       -3.22099        1.76221
H         -0.65773       -5.60382        1.19559
H         -0.09560       -5.41538        2.87745
H          0.98784       -6.14133        1.64254
H          2.79679       -4.35093        2.24039
H          1.65351       -3.70452        3.47599
H          2.32526       -2.60603        2.21684
H          2.66500        5.42874        0.20841
H          2.70616        5.74387       -2.20453
H          1.32706        4.39339       -3.67435
H          0.50020        2.86107        1.99058
H          1.33241        5.83407        2.11119
H          0.59895        4.86330        3.43531
H         -0.34608        5.21654        1.95836
H          2.96145        2.39674        1.84623
H          2.50834        3.22271        3.37991
H          3.30903        4.14816        2.06242
H         -0.71633        1.40676       -2.58291
H         -2.27042        3.34958       -2.37956
H         -2.42519        2.55145       -3.95196
H         -1.52813        4.11589       -3.81450
H         -0.59965        1.44844       -5.03601
H          1.04881        1.42164       -4.44419
H          0.35577        2.95439       -5.04316
H          2.32043        1.41652       -2.84456
H          5.69083       -1.00405       -3.93940
H          3.45921       -1.90824       -0.41043
H         -2.64363       -0.55562        2.01537
H         -2.87120        0.88630        6.00737
H          0.83265        1.16867        3.90907
H         -0.48785        1.55104        5.92500
H         -3.92505       -0.17204        4.03251
H          4.18355        0.91392       -4.40397
H          5.32253       -2.40170       -1.92613
*
